Version 4
SHEET 1 2404 680
WIRE 208 -336 192 -336
WIRE 1808 -304 1808 -320
WIRE 192 -272 192 -336
WIRE 1088 -272 1088 -288
WIRE 1808 -256 1808 -304
WIRE 1088 -224 1088 -272
WIRE 1808 -128 1808 -176
WIRE 1888 -128 1888 -208
WIRE 1888 -128 1872 -128
WIRE 1904 -128 1888 -128
WIRE 2016 -128 1984 -128
WIRE 1648 -112 1584 -112
WIRE 1808 -112 1808 -128
WIRE 1808 -112 1728 -112
WIRE 2016 -112 2016 -128
WIRE 1088 -96 1088 -144
WIRE 1184 -96 1152 -96
WIRE 1296 -96 1264 -96
WIRE 1296 -80 1296 -96
WIRE 1808 -64 1808 -112
WIRE 1584 -48 1584 -112
WIRE 1600 -48 1584 -48
WIRE 1712 -48 1680 -48
WIRE 1792 -48 1712 -48
WIRE 1824 -48 1808 -48
WIRE 192 -32 192 -192
WIRE 1088 -32 1088 -96
WIRE 1584 -32 1584 -48
WIRE 176 -16 128 -16
WIRE 208 -16 192 -16
WIRE 1072 -16 976 -16
WIRE 1104 -16 1088 -16
WIRE 1712 0 1712 -48
WIRE 1808 0 1808 -32
WIRE 1808 0 1776 0
WIRE 1472 32 1472 -48
WIRE 1808 32 1808 0
WIRE 192 64 192 0
WIRE 256 64 192 64
WIRE 352 64 320 64
WIRE 464 64 432 64
WIRE 464 80 464 64
WIRE 1088 96 1088 0
WIRE 1088 96 1008 96
WIRE 1008 112 1008 96
WIRE 192 144 192 64
WIRE 1408 144 1408 32
WIRE -272 160 -352 160
WIRE -112 160 -208 160
WIRE -80 160 -112 160
WIRE 64 160 0 160
WIRE 176 160 64 160
WIRE 208 160 192 160
WIRE 1808 160 1808 112
WIRE -352 176 -352 160
WIRE 1008 208 1008 192
WIRE 64 240 64 160
WIRE 192 240 192 176
WIRE 192 240 128 240
WIRE 1408 240 1408 224
WIRE -112 256 -112 160
WIRE -352 272 -352 256
WIRE 192 304 192 240
WIRE 1008 304 1008 288
WIRE -352 368 -352 352
WIRE 192 416 192 384
FLAG -352 368 0
FLAG 288 -336 0
FLAG 192 416 0
FLAG 208 160 0
FLAG 208 -16 0
FLAG -112 416 0
FLAG 48 -16 0
FLAG 1104 -16 0
FLAG 1008 304 0
FLAG 896 -16 0
FLAG 1088 -352 0
FLAG 464 144 0
FLAG 1296 -16 0
FLAG 1824 -48 0
FLAG 1408 240 0
FLAG 1808 -384 0
FLAG 2016 -48 0
FLAG 1808 160 0
FLAG 1888 -208 Vout
FLAG 1584 48 0
SYMBOL nmos65 208 160 R0
WINDOW 0 0 0 Left 0
SYMATTR InstName X1
SYMATTR Value L=65nm, W=10um, M=22
SYMBOL res -336 272 R180
WINDOW 0 36 76 Left 2
WINDOW 3 36 40 Left 2
SYMATTR InstName R1
SYMATTR Value 50
SYMBOL voltage -352 256 R0
WINDOW 123 24 124 Left 2
WINDOW 39 0 0 Left 0
SYMATTR Value2 AC 1
SYMATTR InstName V1
SYMATTR Value SINE(0 1u 2.5Giga)
SYMBOL voltage 192 -336 R270
WINDOW 0 32 56 VTop 2
WINDOW 3 -32 56 VBottom 2
WINDOW 123 0 0 Left 0
WINDOW 39 0 0 Left 0
SYMATTR InstName Vdd
SYMATTR Value 1.2
SYMBOL cap -208 144 R90
WINDOW 0 0 32 VBottom 2
WINDOW 3 32 32 VTop 2
SYMATTR InstName C2
SYMATTR Value 1.5p
SYMBOL ind 208 400 R180
WINDOW 0 36 80 Left 2
WINDOW 3 36 40 Left 2
SYMATTR InstName Ls
SYMATTR Value 1.1n
SYMATTR SpiceLine Rser=1.57k
SYMBOL ind -96 176 R270
WINDOW 0 32 56 VTop 2
WINDOW 3 5 56 VBottom 2
SYMATTR InstName Lg
SYMATTR Value 7.5n
SYMATTR SpiceLine Rser=1.57k
SYMBOL res -128 240 R0
SYMATTR InstName R4
SYMATTR Value 50
SYMBOL nmos65 208 -16 R0
WINDOW 0 0 0 Left 0
SYMATTR InstName X2
SYMATTR Value L=65nm, W=10um,M=22
SYMBOL voltage -112 320 R0
WINDOW 123 0 0 Left 0
WINDOW 39 0 0 Left 0
SYMATTR InstName V2
SYMATTR Value 0.6
SYMBOL voltage 144 -16 R90
WINDOW 123 0 0 Left 0
WINDOW 39 0 0 Left 0
SYMATTR InstName V3
SYMATTR Value 1.2
SYMBOL cap 128 224 R90
WINDOW 0 0 32 VBottom 2
WINDOW 3 32 32 VTop 2
SYMATTR InstName C3
SYMATTR Value 1p
SYMBOL nmos65 1104 -16 R0
WINDOW 0 0 0 Left 0
SYMATTR InstName X3
SYMATTR Value L=65nm, W=10um, M=22
SYMBOL res 1024 208 R180
WINDOW 0 36 76 Left 2
WINDOW 3 36 40 Left 2
SYMATTR InstName R5
SYMATTR Value 50
SYMBOL voltage 1008 192 R0
WINDOW 123 24 124 Left 2
WINDOW 39 0 0 Left 0
SYMATTR Value2 AC 1
SYMATTR InstName V4
SYMATTR Value SINE(0 1u 2.5Giga)
SYMBOL res 1072 -240 R0
SYMATTR InstName R6
SYMATTR Value 100
SYMBOL voltage 992 -16 R90
WINDOW 123 0 0 Left 0
WINDOW 39 0 0 Left 0
SYMATTR InstName V5
SYMATTR Value 0.1
SYMBOL voltage 1088 -256 R180
WINDOW 0 24 96 Left 2
WINDOW 3 24 16 Left 2
WINDOW 123 0 0 Left 0
WINDOW 39 0 0 Left 0
SYMATTR InstName V6
SYMATTR Value 1.2
SYMBOL cap 320 48 R90
WINDOW 0 0 32 VBottom 2
WINDOW 3 32 32 VTop 2
SYMATTR InstName C1
SYMATTR Value 10p
SYMBOL res 448 48 R90
WINDOW 0 0 56 VBottom 2
WINDOW 3 32 56 VTop 2
SYMATTR InstName R3
SYMATTR Value 100k
SYMBOL cap 448 80 R0
SYMATTR InstName C5
SYMATTR Value 100f
SYMBOL cap 1152 -112 R90
WINDOW 0 0 32 VBottom 2
WINDOW 3 32 32 VTop 2
SYMATTR InstName C6
SYMATTR Value 10p
SYMBOL res 1280 -112 R90
WINDOW 0 0 56 VBottom 2
WINDOW 3 32 56 VTop 2
SYMATTR InstName R8
SYMATTR Value 100k
SYMBOL cap 1280 -80 R0
SYMATTR InstName C7
SYMATTR Value 100f
SYMBOL ind 208 -176 R180
WINDOW 0 36 80 Left 2
WINDOW 3 36 40 Left 2
SYMATTR InstName L1
SYMATTR Value 5n
SYMATTR SpiceLine Rser=1.57k
SYMBOL nmos65 1824 -48 R0
WINDOW 0 0 0 Left 0
SYMATTR InstName X4
SYMATTR Value L=65nm, W=100um, M=20
SYMBOL voltage 1408 128 R0
WINDOW 123 24 124 Left 2
WINDOW 39 24 152 Left 2
SYMATTR Value2 AC 1
SYMATTR InstName V7
SYMATTR Value SINE(0 1u 2.5Giga)
SYMATTR SpiceLine Rser=50
SYMBOL res 1792 -272 R0
SYMATTR InstName R7
SYMATTR Value 1k
SYMBOL voltage 1808 -288 R180
WINDOW 0 24 96 Left 2
WINDOW 3 24 16 Left 2
WINDOW 123 0 0 Left 0
WINDOW 39 0 0 Left 0
SYMATTR InstName V9
SYMATTR Value 1.2
SYMBOL cap 1872 -144 R90
WINDOW 0 0 32 VBottom 2
WINDOW 3 32 32 VTop 2
SYMATTR InstName C4
SYMATTR Value 10p
SYMBOL res 2000 -144 R90
WINDOW 0 0 56 VBottom 2
WINDOW 3 32 56 VTop 2
SYMATTR InstName R9
SYMATTR Value 100k
SYMBOL cap 2000 -112 R0
SYMATTR InstName C8
SYMATTR Value 100f
SYMBOL cap 1472 16 R90
WINDOW 0 0 32 VBottom 2
WINDOW 3 32 32 VTop 2
SYMATTR InstName C9
SYMATTR Value 15p
SYMBOL cap 1776 -16 R90
WINDOW 0 0 32 VBottom 2
WINDOW 3 32 32 VTop 2
SYMATTR InstName C10
SYMATTR Value 2p
SYMBOL voltage 1584 -48 R0
WINDOW 123 24 124 Left 2
WINDOW 39 0 0 Left 0
SYMATTR InstName V8
SYMATTR Value ""
SYMATTR Value2 AC 1
SYMBOL res 1744 -128 R90
WINDOW 0 0 56 VBottom 2
WINDOW 3 32 56 VTop 2
SYMATTR InstName R2
SYMATTR Value 100k
SYMBOL ind 1792 16 R0
SYMATTR InstName L2
SYMATTR Value 10n
SYMBOL ind 1584 -32 R270
WINDOW 0 32 56 VTop 2
WINDOW 3 5 56 VBottom 2
SYMATTR InstName L3
SYMATTR Value 1n
TEXT 2024 -248 Left 2 !.ac dec 100 2G 3G
TEXT 2024 -288 Left 2 !;tran 0 0.01u 500f
TEXT 2024 -336 Left 2 !;noise V(Vout) V7 dec 100 2G 3G
TEXT 1912 48 Left 2 !.net I(R9) V7
