Version 4
SHEET 1 880 680
WIRE 160 -96 16 -96
WIRE 176 -96 160 -96
WIRE 16 -64 16 -96
WIRE 160 -32 160 -96
WIRE 160 64 160 48
WIRE 224 64 160 64
WIRE 336 64 288 64
WIRE 160 144 160 64
WIRE -144 160 -224 160
WIRE 16 160 16 16
WIRE 16 160 -80 160
WIRE 144 160 16 160
WIRE 176 160 160 160
WIRE 336 160 336 144
WIRE -224 176 -224 160
WIRE 16 256 16 160
WIRE 160 256 160 176
WIRE -224 272 -224 256
WIRE 16 352 16 336
WIRE -224 368 -224 352
FLAG -224 368 0
FLAG 176 160 0
FLAG 160 256 0
FLAG 336 160 0
FLAG 256 -96 0
FLAG 16 352 0
SYMBOL nmos65 176 160 R0
SYMATTR InstName X1
SYMATTR Value L=130nm, W=200nm
SYMBOL res -208 272 R180
WINDOW 0 36 76 Left 2
WINDOW 3 36 40 Left 2
SYMATTR InstName R1
SYMATTR Value 50
SYMBOL voltage -224 256 R0
WINDOW 123 24 124 Left 2
WINDOW 39 0 0 Left 0
SYMATTR InstName V1
SYMATTR Value SINE(0 1m 2.5Giga)
SYMATTR Value2 AC 1
SYMBOL res 176 64 R180
WINDOW 0 36 76 Left 2
WINDOW 3 36 40 Left 2
SYMATTR InstName R2
SYMATTR Value 10k
SYMBOL cap 288 48 R90
WINDOW 0 0 32 VBottom 2
WINDOW 3 32 32 VTop 2
SYMATTR InstName C1
SYMATTR Value 100f
SYMBOL res 320 48 R0
SYMATTR InstName R3
SYMATTR Value 50
SYMBOL voltage 160 -96 R270
WINDOW 0 32 56 VTop 2
WINDOW 3 -32 56 VBottom 2
WINDOW 123 0 0 Left 0
WINDOW 39 0 0 Left 0
SYMATTR InstName Vdd
SYMATTR Value 1.2
SYMBOL res 0 -80 R0
SYMATTR InstName R4
SYMATTR Value 1k
SYMBOL res 0 240 R0
SYMATTR InstName R5
SYMATTR Value 1k
SYMBOL cap -80 144 R90
WINDOW 0 0 32 VBottom 2
WINDOW 3 32 32 VTop 2
SYMATTR InstName C2
SYMATTR Value 10µ
TEXT -556 336 Left 2 !;.ac dec 100 2G 3G
TEXT -558 356 Left 2 !.tran 0 0.01u 0
